*Heading
** Job name: Job-2 Model name: testPinch2
** Generated by: Abaqus/CAE 2017
*Preprint, echo=NO, model=NO, history=NO, contact=NO
**
** PARTS
**
*Part, name=PLANE_A1
*End Part
**  
*Part, name=PLANE_A2
*End Part
**  
*Part, name=SPHERE
*Node
      1,   10.1563797,    11.038476
      2,           0.,           0.
      3,   10.3536816,  -10.8536291
      4,   14.9047623,  -1.68761766
      5,           0.,         -15.
      6,           0.,          15.
      7,   14.9843922, -0.684097707
      8,   14.9965324,  0.322503358
      9,   14.9411287,   1.32765198
     10,   14.8184309,   2.32682085
     11,   14.6289911,    3.3155098
     12,   14.3736629,   4.28926563
     13,   14.0535965,   5.24370289
     14,   13.6702328,   6.17452288
     15,   13.2252989,   7.07753277
     16,   12.7207985,   7.94866562
     17,   12.1590042,   8.78399754
     18,   11.5424461,   9.57976723
     19,   10.8739004,   10.3323898
     20,   9.43092442,   10.2500134
** ... 469 like lines cut
*Element, type=CAX4R
  1,   8,   9, 127, 115
  2,   9,  10, 128, 127
  3,  10,  11, 129, 128
  4,  11,  12, 130, 129
  5,  12,  13, 131, 130
  6,  13,  14, 132, 131
  7,  14,  15, 133, 132
  8,  15,  16, 134, 133
  9,  16,  17, 135, 134
 10,  17,  18, 136, 135
 11,  18,  19, 137, 136
 12,  19,   1,  20, 137
 13, 115, 127, 114, 103
 14, 127, 128, 113, 114
 15, 128, 129, 112, 113
 16, 129, 130, 111, 112
 17, 130, 131, 110, 111
 18, 131, 132, 109, 110
 19, 132, 133, 108, 109
 20, 133, 134, 107, 108
** ... 430 like lines cut
*Nset, nset=FULLSPHERE, generate
   1,  489,    1
*Elset, elset=FULLSPHERE, generate
   1,  450,    1
** Section: Section-1-FULLSPHERE
*Solid Section, elset=FULLSPHERE, controls=EC-1, material=MATERIAL-1
,
*End Part
**  
**
** ASSEMBLY
**
*Assembly, name=Assembly
**  
*Instance, name=FULLSPHERE_A, part=SPHERE
*End Instance
**  
*Instance, name=PLANE_A1, part=PLANE_A1
          0.,         -22.,           0.
*Node
      1,   6.44659042,           7.
*Nset, nset=PLANE_A1-RefPt_, internal
 1,
*Nset, nset=PLANE_A1-REFPT_, internal
 1,
*Surface, type=SEGMENTS, name=PLANE_A1-M_SURF-3
START,           0.,           7.
 LINE, 12.893180847168,           7.
*End Instance
**  
*Instance, name=PLANE_A2, part=PLANE_A2
          0.,           8.,           0.
*Node
      1,   6.44659042,           7.
*Nset, nset=PLANE_A2-RefPt_, internal
 1,
*Nset, nset=PLANE_A2-REFPT_, internal
 1,
*Surface, type=SEGMENTS, name=PLANE_A2-M_SURF-1
START, 12.893180847168,           7.
 LINE,           0.,           7.
*End Instance
**  
*Nset, nset=AXIS, instance=FULLSPHERE_A
  2,  5,  6, 65, 66, 67, 68, 69, 70, 71, 72, 73, 74, 75, 76, 77
 78, 79, 80, 81, 82, 83, 84, 85, 86, 87, 88, 89, 90, 91, 92
*Elset, elset=AXIS, instance=FULLSPHERE_A
 251, 256, 261, 266, 271, 276, 277, 278, 279, 280, 281, 282, 283, 284, 285, 322
 323, 324, 325, 326, 327, 410, 415, 420, 425, 430, 435, 440, 445, 450
*Nset, nset=BOTTOMBAR, instance=PLANE_A1
 1,
*Nset, nset=BOTTOMEDGE, instance=FULLSPHERE_A
  3,  5, 55, 56, 57, 58, 59, 60, 61, 62, 63, 64
*Elset, elset=BOTTOMEDGE, instance=FULLSPHERE_A
 193, 194, 195, 196, 197, 198, 285, 294, 303, 312, 321
*Nset, nset=BOTTOMRP, instance=PLANE_A1
 1,
*Nset, nset=CALIBRATIONNODES, instance=FULLSPHERE_A
  8, 17, 48, 59, 98
*Nset, nset=CENTRALNODE, instance=FULLSPHERE_A
 2,
*Nset, nset=TOPBAR, instance=PLANE_A2
 1,
*Nset, nset=TOPEDGE, instance=FULLSPHERE_A
   1,   6,  93,  94,  95,  96,  97,  98,  99, 100, 101, 102
*Elset, elset=TOPEDGE, instance=FULLSPHERE_A
 360, 369, 378, 387, 396, 405, 406, 407, 408, 409, 410
*Nset, nset=TOPRP, instance=PLANE_A2
 1,
*Elset, elset=_S_SURF-1_S1, internal, instance=FULLSPHERE_A, generate
 406,  410,    1
*Elset, elset=_S_SURF-1_S2, internal, instance=FULLSPHERE_A, generate
 360,  405,    9
*Elset, elset=_S_SURF-3_S1, internal, instance=FULLSPHERE_A, generate
 193,  198,    1
*Elset, elset=_S_SURF-3_S2, internal, instance=FULLSPHERE_A, generate
 285,  321,    9
*Elset, elset=_S_SURF-1_S2_1, internal, instance=FULLSPHERE_A, generate
 360,  405,    9
*Elset, elset=_S_SURF-1_S1_1, internal, instance=FULLSPHERE_A, generate
 406,  410,    1
*Surface, type=ELEMENT, name=S_SURF-1
_S_SURF-1_S2_1, S2
_S_SURF-1_S1_1, S1
*Elset, elset=_S_SURF-3_S1_1, internal, instance=FULLSPHERE_A, generate
 193,  198,    1
*Elset, elset=_S_SURF-3_S2_1, internal, instance=FULLSPHERE_A, generate
 285,  321,    9
*Surface, type=ELEMENT, name=S_SURF-3
_S_SURF-3_S1_1, S1
_S_SURF-3_S2_1, S2
** Constraint: RigidBody-1
*Rigid Body, ref node=PLANE_A2.PLANE_A2-REFPT_, analytical surface=PLANE_A2.PLANE_A2-M_SURF-1
** Constraint: RigidBody-2
*Rigid Body, ref node=PLANE_A1.PLANE_A1-REFPT_, analytical surface=PLANE_A1.PLANE_A1-M_SURF-3
*End Assembly
** 
** ELEMENT CONTROLS
** 
*Section Controls, name=EC-1, hourglass=ENHANCED
1., 1., 1.
** 
** MATERIALS
** 
*Material, name=MATERIAL-1
*Elastic
120., 0.3
** 
** INTERACTION PROPERTIES
** 
*Surface Interaction, name=INTPROP-1
1.,
*Friction, slip tolerance=0.005
 0.8,
*Surface Behavior, no separation, penalty
, , 100.
** 
** INTERACTIONS
** 
** Interaction: INTPROP-1-1
*Contact Pair, interaction=INTPROP-1, type=SURFACE TO SURFACE
S_SURF-3, PLANE_A1.PLANE_A1-M_SURF-3
** Interaction: INTPROP-1-2
*Contact Pair, interaction=INTPROP-1, type=SURFACE TO SURFACE
S_SURF-1, PLANE_A2.PLANE_A2-M_SURF-1
** ----------------------------------------------------------------
** 
** STEP: Load1
** 
*Step, name=Load1, nlgeom=YES
*Static
0.5, 1., 1e-05, 1.
** 
** BOUNDARY CONDITIONS
** 
** Name: Disp-BC-1 Type: Displacement/Rotation
*Boundary
BOTTOMRP, 1, 1
** Name: Disp-BC-2 Type: Displacement/Rotation
*Boundary
BOTTOMRP, 2, 2, 0.02
** Name: Disp-BC-3 Type: Displacement/Rotation
*Boundary
BOTTOMRP, 6, 6
** Name: Disp-BC-4 Type: Symmetry/Antisymmetry/Encastre
*Boundary
CENTRALNODE, ENCASTRE
** Name: Disp-BC-5 Type: Symmetry/Antisymmetry/Encastre
*Boundary
AXIS, XSYMM
** Name: Disp-BC-6 Type: Displacement/Rotation
*Boundary
TOPRP, 1, 1
** Name: Disp-BC-7 Type: Displacement/Rotation
*Boundary
TOPRP, 2, 2, -0.02
** Name: Disp-BC-8 Type: Displacement/Rotation
*Boundary
TOPRP, 6, 6
** 
** OUTPUT REQUESTS
** 
*Restart, write, frequency=0
** 
** FIELD OUTPUT: F-Output-1
** 
*Output, field
*Node Output, nset=CALIBRATIONNODES
CF, RF, U, UR, UT
** 
** FIELD OUTPUT: F-Output-2
** 
*Contact Output, nset=CALIBRATIONNODES
CFORCE, CNAREA, CSTATUS, CSTRESS
** 
** FIELD OUTPUT: F-Output-3
** 
*Output, field, variable=PRESELECT
** 
** HISTORY OUTPUT: H-Output-1
** 
*Output, history, variable=PRESELECT
*End Step
** ----------------------------------------------------------------
** 
** STEP: Load2
** 
*Step, name=Load2, nlgeom=YES, inc=10000
*Static
0.01, 1., 1e-05, 1.
** 
** BOUNDARY CONDITIONS
** 
** Name: Disp-BC-1 Type: Displacement/Rotation
*Boundary, op=NEW
** Name: Disp-BC-2 Type: Displacement/Rotation
*Boundary, op=NEW
** Name: Disp-BC-3 Type: Displacement/Rotation
*Boundary, op=NEW
** Name: Disp-BC-4 Type: Symmetry/Antisymmetry/Encastre
*Boundary, op=NEW
** Name: Disp-BC-5 Type: Symmetry/Antisymmetry/Encastre
*Boundary, op=NEW
** Name: Disp-BC-6 Type: Displacement/Rotation
*Boundary, op=NEW
** Name: Disp-BC-7 Type: Displacement/Rotation
*Boundary, op=NEW
** Name: Disp-BC-8 Type: Displacement/Rotation
*Boundary, op=NEW
** Name: Disp-BC-9 Type: Displacement/Rotation
*Boundary, op=NEW
BOTTOMRP, 1, 1
** Name: Disp-BC-10 Type: Displacement/Rotation
*Boundary, op=NEW
BOTTOMRP, 2, 2
** Name: Disp-BC-11 Type: Displacement/Rotation
*Boundary, op=NEW
BOTTOMRP, 6, 6
** Name: Disp-BC-12 Type: Symmetry/Antisymmetry/Encastre
*Boundary, op=NEW
AXIS, XSYMM
** Name: Disp-BC-13 Type: Displacement/Rotation
*Boundary, op=NEW
TOPRP, 1, 1
** Name: Disp-BC-14 Type: Displacement/Rotation
*Boundary, op=NEW
TOPRP, 6, 6
** 
** LOADS
** 
** Name: CFORCE-1   Type: Concentrated force
*Cload
TOPBAR, 2, -600.
** 
** OUTPUT REQUESTS
** 
*Restart, write, frequency=0
** 
** FIELD OUTPUT: F-Output-4
** 
*Output, field
*Node Output, nset=CALIBRATIONNODES
CF, RF, U, UR, UT
** 
** FIELD OUTPUT: F-Output-5
** 
*Contact Output, nset=CALIBRATIONNODES
CFORCE, CNAREA, CSTATUS, CSTRESS
** 
** FIELD OUTPUT: F-Output-6
** 
*Output, field, variable=PRESELECT
** 
** HISTORY OUTPUT: H-Output-2
** 
*Output, history, variable=PRESELECT
*End Step
